6

O      0.0000000000      0.0000000000      0.0000000000
H      0.9571758084      0.0000000000      0.0000000000
H     -0.2455911614      0.9251605848      0.0000000000
O      3.0004350032      0.0000000000      0.0000000000
H      3.5058521939     -0.2917883352      0.7587343400
H      3.5058521939     -0.2917883352     -0.7587343400
